/*--------------------------------*- C++ -*----------------------------------*\
  =========                 |
  \\      /  F ield         | OpenFOAM: The Open Source CFD Toolbox
   \\    /   O peration     | Website:  https://openfoam.org
    \\  /    A nd           | Version:  6
     \\/     M anipulation  |
\*---------------------------------------------------------------------------*/
FoamFile
{
    version     2.0;
    format      ascii;
    class       polyBoundaryMesh;
    location    "constant/polyMesh";
    object      boundary;
}
// * * * * * * * * * * * * * * * * * * * * * * * * * * * * * * * * * * * * * //

5
(
    inlet1
    {
        type            patch;
        nFaces          200;
        startFace       162400;
    }
    inlet2
    {
        type            patch;
        nFaces          200;
        startFace       162600;
    }
    outlet1
    {
        type            patch;
        nFaces          200;
        startFace       162800;
    }
    outlet2
    {
        type            patch;
        nFaces          200;
        startFace       163000;
    }
    fixedWalls
    {
        type            wall;
        inGroups        1(wall);
        nFaces          10400;
        startFace       163200;
    }
)

// ************************************************************************* //
