/*--------------------------------*- C++ -*----------------------------------*\
  =========                 |
  \\      /  F ield         | OpenFOAM: The Open Source CFD Toolbox
   \\    /   O peration     | Website:  https://openfoam.org
    \\  /    A nd           | Version:  6
     \\/     M anipulation  |
\*---------------------------------------------------------------------------*/
FoamFile
{
    version     2.0;
    format      ascii;
    class       polyBoundaryMesh;
    location    "constant/polyMesh";
    object      boundary;
}
// * * * * * * * * * * * * * * * * * * * * * * * * * * * * * * * * * * * * * //

10
(
    inlet1
    {
        type            cyclic;
        inGroups        1(cyclic);
        nFaces          400;
        startFace       140400;
        matchTolerance  0.0001;
        transform       unknown;
        neighbourPatch  outlet1;
    }
    inlet2
    {
        type            cyclic;
        inGroups        1(cyclic);
        nFaces          400;
        startFace       140800;
        matchTolerance  0.0001;
        transform       unknown;
        neighbourPatch  outlet2;
    }
    outlet1
    {
        type            cyclic;
        inGroups        1(cyclic);
        nFaces          400;
        startFace       141200;
        matchTolerance  0.0001;
        transform       unknown;
        neighbourPatch  inlet1;
    }
    outlet2
    {
        type            cyclic;
        inGroups        1(cyclic);
        nFaces          400;
        startFace       141600;
        matchTolerance  0.0001;
        transform       unknown;
        neighbourPatch  inlet2;
    }
    fixedWallsTOP
    {
        type            wall;
        inGroups        1(wall);
        nFaces          2440;
        startFace       142000;
    }
    fixedWallsBOTTOM
    {
        type            wall;
        inGroups        1(wall);
        nFaces          2440;
        startFace       144440;
    }
    fixedWallsLEFT
    {
        type            wall;
        inGroups        1(wall);
        nFaces          2360;
        startFace       146880;
    }
    fixedWallsRIGHT
    {
        type            wall;
        inGroups        1(wall);
        nFaces          2360;
        startFace       149240;
    }
    fixedWallsFIRST
    {
        type            wall;
        inGroups        1(wall);
        nFaces          400;
        startFace       151600;
    }
    fixedWallsSECOND
    {
        type            wall;
        inGroups        1(wall);
        nFaces          400;
        startFace       152000;
    }
)

// ************************************************************************* //
