/*--------------------------------*- C++ -*----------------------------------*\
  =========                 |
  \\      /  F ield         | OpenFOAM: The Open Source CFD Toolbox
   \\    /   O peration     | Website:  https://openfoam.org
    \\  /    A nd           | Version:  6
     \\/     M anipulation  |
\*---------------------------------------------------------------------------*/
FoamFile
{
    version     2.0;
    format      ascii;
    class       polyBoundaryMesh;
    location    "constant/polyMesh";
    object      boundary;
}
// * * * * * * * * * * * * * * * * * * * * * * * * * * * * * * * * * * * * * //

5
(
    inlet1
    {
        type            cyclic;
        inGroups        1(cyclic);
        nFaces          100;
        startFace       19500;
        matchTolerance  0.0001;
        transform       unknown;
        neighbourPatch  outlet1;
    }
    inlet2
    {
        type            cyclic;
        inGroups        1(cyclic);
        nFaces          100;
        startFace       19600;
        matchTolerance  0.0001;
        transform       unknown;
        neighbourPatch  outlet2;
    }
    outlet1
    {
        type            cyclic;
        inGroups        1(cyclic);
        nFaces          100;
        startFace       19700;
        matchTolerance  0.0001;
        transform       unknown;
        neighbourPatch  inlet1;
    }
    outlet2
    {
        type            cyclic;
        inGroups        1(cyclic);
        nFaces          100;
        startFace       19800;
        matchTolerance  0.0001;
        transform       unknown;
        neighbourPatch  inlet2;
    }
    fixedWalls
    {
        type            wall;
        inGroups        1(wall);
        nFaces          2600;
        startFace       19900;
    }
)

// ************************************************************************* //
