/*--------------------------------*- C++ -*----------------------------------*\
  =========                 |
  \\      /  F ield         | OpenFOAM: The Open Source CFD Toolbox
   \\    /   O peration     | Website:  https://openfoam.org
    \\  /    A nd           | Version:  6
     \\/     M anipulation  |
\*---------------------------------------------------------------------------*/
FoamFile
{
    version     2.0;
    format      ascii;
    class       volScalarField;
    object      X;
}
// * * * * * * * * * * * * * * * * * * * * * * * * * * * * * * * * * * * * * //

dimensions      [0 1 0 0 0 0 0];

internalField   uniform 0;

boundaryField
{
    inlet1
    {
        type            fixedValue;
        value           uniform 2;
    }

    inlet2
    {
        type            fixedValue;
        value           uniform 1;
    }

    outlet1
    {
        type            zeroGradient;
    }

    outlet2
    {
        type            zeroGradient;
    }

    fixedWalls
    {
        type            zeroGradient;
    }

// ************************************************************************* //
