/*--------------------------------*- C++ -*----------------------------------*\
  =========                 |
  \\      /  F ield         | OpenFOAM: The Open Source CFD Toolbox
   \\    /   O peration     | Website:  https://openfoam.org
    \\  /    A nd           | Version:  6
     \\/     M anipulation  |
\*---------------------------------------------------------------------------*/
FoamFile
{
    version     2.0;
    format      ascii;
    class       volScalarField;
    object      p;
}
// * * * * * * * * * * * * * * * * * * * * * * * * * * * * * * * * * * * * * //

dimensions      [0 2 -2 0 0 0 0];

internalField   uniform 0;

boundaryField
{
    inlet1
    {
        type            cyclic;
    }

    inlet2
    {
        type            cyclic;
    }

    outlet1
    {
        type            cyclic;
    }

    outlet2
    {
        type            cyclic;
    }

    fixedWalls
    {
        type            fixedFluxPressure;
    }

// ************************************************************************* //
