/*--------------------------------*- C++ -*----------------------------------*\
  =========                 |
  \\      /  F ield         | OpenFOAM: The Open Source CFD Toolbox
   \\    /   O peration     | Website:  https://openfoam.org
    \\  /    A nd           | Version:  6
     \\/     M anipulation  |
\*---------------------------------------------------------------------------*/
FoamFile
{
    version     2.0;
    format      ascii;
    class       polyBoundaryMesh;
    location    "constant/polyMesh";
    object      boundary;
}
// * * * * * * * * * * * * * * * * * * * * * * * * * * * * * * * * * * * * * //

10
(
    inlet1
    {
        type            cyclic;
        inGroups        1(cyclic);
        nFaces          760;
        startFace       162000;
        matchTolerance  0.0001;
        transform       unknown;
        neighbourPatch  outlet1;
    }
    inlet2
    {
        type            cyclic;
        inGroups        1(cyclic);
        nFaces          40;
        startFace       162760;
        matchTolerance  0.0001;
        transform       unknown;
        neighbourPatch  outlet2;
    }
    outlet1
    {
        type            cyclic;
        inGroups        1(cyclic);
        nFaces          760;
        startFace       162800;
        matchTolerance  0.0001;
        transform       unknown;
        neighbourPatch  inlet1;
    }
    outlet2
    {
        type            cyclic;
        inGroups        1(cyclic);
        nFaces          40;
        startFace       163560;
        matchTolerance  0.0001;
        transform       unknown;
        neighbourPatch  inlet2;
    }
    fixedWallsTOP
    {
        type            wall;
        inGroups        1(wall);
        nFaces          2800;
        startFace       163600;
    }
    fixedWallsBOTTOM
    {
        type            wall;
        inGroups        1(wall);
        nFaces          2800;
        startFace       166400;
    }
    fixedWallsLEFT
    {
        type            wall;
        inGroups        1(wall);
        nFaces          2000;
        startFace       169200;
    }
    fixedWallsRIGHT
    {
        type            wall;
        inGroups        1(wall);
        nFaces          2000;
        startFace       171200;
    }
    fixedWallsFIRST
    {
        type            wall;
        inGroups        1(wall);
        nFaces          400;
        startFace       173200;
    }
    fixedWallsSECOND
    {
        type            wall;
        inGroups        1(wall);
        nFaces          400;
        startFace       173600;
    }
)

// ************************************************************************* //
